Reffs/Redes/Rede_03/_trafo3 - Copia/ckt03_VLN_Node.Txt

LINE-GROUND and LINE-LINE VOLTAGES BY BUS & NODE

Bus                   Node    VLN (kV)   Angle      pu     Base kV    Node-Node   VLL (kV)  Angle      pu

BUS_XFMR_PRI_33998182 1       6.8705 /_    0.0         1    11.900        1-2       11.9 /_   30.0         1
   -                  2       6.8705 /_ -120.0         1    11.900        2-3       11.9 /_  -90.0         1
   -                  3       6.8705 /_  120.0         1    11.900        3-1       11.9 /_  150.0         1
BUS_XFMR_SEC_33998182 1      0.12702 /_  -30.0         1     0.220        1-2       0.22 /_    0.0         1
   -                  2      0.12702 /_ -150.0         1     0.220        2-3       0.22 /_ -120.0         1
   -                  3      0.12702 /_   90.0         1     0.220        3-1       0.22 /_  120.0         1
   -                  4   5.6496E-009 /_  -19.2 4.4479E-008     0.220
BUS_33998182_001 .... 1      0.12702 /_  -30.0         1     0.220        1-2       0.22 /_    0.0         1
   -                  2      0.12702 /_ -150.0         1     0.220        2-3       0.22 /_ -120.0         1
   -                  3      0.12702 /_   90.0         1     0.220        3-1       0.22 /_  120.0         1
   -                  4   5.5957E-009 /_  -18.8 4.4055E-008     0.220
BUS_33998182_013 .... 3      0.12702 /_   90.0         1     0.220
   -                  4   5.6428E-009 /_  -18.9 4.4426E-008     0.220
BUS_33998182_006 .... 1      0.12702 /_  -30.0         1     0.220        1-2       0.22 /_    0.0         1
   -                  2      0.12702 /_ -150.0         1     0.220        2-3       0.22 /_ -120.0         1
   -                  3      0.12702 /_   90.0         1     0.220        3-1       0.22 /_  120.0         1
   -                  4   5.2004E-009 /_  -20.1 4.0943E-008     0.220
BUS_33998182_014 .... 1      0.12702 /_  -30.0         1     0.220        1-2       0.22 /_    0.0         1
   -                  2      0.12702 /_ -150.0         1     0.220        2-3       0.22 /_ -120.0         1
   -                  3      0.12702 /_   90.0         1     0.220        3-1       0.22 /_  120.0         1
   -                  4   5.5912E-009 /_  -18.7 4.4019E-008     0.220
BUS_33998182_002 .... 1      0.12702 /_  -30.0         1     0.220        1-2       0.22 /_    0.0         1
   -                  2      0.12702 /_ -150.0         1     0.220        2-3       0.22 /_ -120.0         1
   -                  3      0.12702 /_   90.0         1     0.220        3-1       0.22 /_  120.0         1
   -                  4   5.5431E-009 /_  -19.2 4.364E-008     0.220
BUS_33998182_003 .... 1      0.12702 /_  -30.0         1     0.220        1-2       0.22 /_    0.0         1
   -                  2      0.12702 /_ -150.0         1     0.220        2-3       0.22 /_ -120.0         1
   -                  3      0.12702 /_   90.0         1     0.220        3-1       0.22 /_  120.0         1
   -                  4   5.6213E-009 /_  -18.0 4.4256E-008     0.220
BUS_33998182_015 .... 1      0.12702 /_  -30.0         1     0.220
   -                  4   5.5535E-009 /_  -19.3 4.3722E-008     0.220
BUS_33998182_016 .... 2      0.12702 /_ -150.0         1     0.220        2-3       0.22 /_ -120.0         1
   -                  3      0.12702 /_   90.0         1     0.220
   -                  4   5.4996E-009 /_  -19.2 4.3299E-008     0.220
BUS_33998182_004 .... 1      0.12702 /_  -30.0         1     0.220        1-2       0.22 /_    0.0         1
   -                  2      0.12702 /_ -150.0         1     0.220        2-3       0.22 /_ -120.0         1
   -                  3      0.12702 /_   90.0         1     0.220        3-1       0.22 /_  120.0         1
   -                  4   5.4731E-009 /_  -20.0 4.309E-008     0.220
BUS_33998182_005 .... 1      0.12702 /_  -30.0         1     0.220        1-2       0.22 /_    0.0         1
   -                  2      0.12702 /_ -150.0         1     0.220        2-3       0.22 /_ -120.0         1
   -                  3      0.12702 /_   90.0         1     0.220        3-1       0.22 /_  120.0         1
   -                  4   5.6894E-009 /_  -17.1 4.4792E-008     0.220
BUS_33998182_017 .... 1      0.12702 /_  -30.0         1     0.220        1-2       0.22 /_    0.0         1
   -                  2      0.12702 /_ -150.0         1     0.220        2-3       0.22 /_ -120.0         1
   -                  3      0.12702 /_   90.0         1     0.220        3-1       0.22 /_  120.0         1
   -                  4   5.6094E-009 /_  -18.1 4.4163E-008     0.220
BUS_33998182_018 .... 1      0.12702 /_  -30.0         1     0.220
   -                  4   5.489E-009 /_  -20.2 4.3215E-008     0.220
BUS_33998182_019 .... 2      0.12702 /_ -150.0         1     0.220        2-3       0.22 /_ -120.0         1
   -                  3      0.12702 /_   90.0         1     0.220
   -                  4   5.4137E-009 /_  -20.1 4.2622E-008     0.220
BUS_33998182_020 .... 1      0.12702 /_  -30.0         1     0.220        1-2       0.22 /_    0.0         1
   -                  2      0.12702 /_ -150.0         1     0.220        2-3       0.22 /_ -120.0         1
   -                  3      0.12702 /_   90.0         1     0.220        3-1       0.22 /_  120.0         1
   -                  4   5.6782E-009 /_  -17.2 4.4704E-008     0.220
BUS_33998182_021 .... 1      0.12702 /_  -30.0         1     0.220
   -                  3      0.12702 /_   90.0         1     0.220        3-1       0.22 /_  120.0         1
   -                  4   5.6972E-009 /_  -17.0 4.4854E-008     0.220
BUS_33998182_022 .... 2      0.12702 /_ -150.0         1     0.220
   -                  4   5.174E-009 /_  -20.3 4.0735E-008     0.220
BUS_33998182_007 .... 1      0.12702 /_  -30.0         1     0.220        1-2       0.22 /_    0.0         1
   -                  2      0.12702 /_ -150.0         1     0.220        2-3       0.22 /_ -120.0         1
   -                  3      0.12702 /_   90.0         1     0.220        3-1       0.22 /_  120.0         1
   -                  4   5.148E-009 /_  -20.0 4.053E-008     0.220
BUS_33998182_023 .... 2      0.12702 /_ -150.0         1     0.220        2-3       0.22 /_ -120.0         1
   -                  3      0.12702 /_   90.0         1     0.220
   -                  4   5.147E-009 /_  -20.1 4.0522E-008     0.220
BUS_33998182_008 .... 1      0.12702 /_  -30.0         1     0.220        1-2       0.22 /_    0.0         1
   -                  2      0.12702 /_ -150.0         1     0.220        2-3       0.22 /_ -120.0         1
   -                  3      0.12702 /_   90.0         1     0.220        3-1       0.22 /_  120.0         1
   -                  4   4.8522E-009 /_  -17.3 3.8201E-008     0.220
BUS_33998182_009 .... 1      0.12702 /_  -30.0         1     0.220        1-2       0.22 /_    0.0         1
   -                  2      0.12702 /_ -150.0         1     0.220        2-3       0.22 /_ -120.0         1
   -                  3      0.12702 /_   90.0         1     0.220        3-1       0.22 /_  120.0         1
   -                  4   5.0826E-009 /_  -21.0 4.0015E-008     0.220
BUS_33998182_010 .... 1      0.12702 /_  -30.0         1     0.220        1-2       0.22 /_    0.0         1
   -                  2      0.12702 /_ -150.0         1     0.220        2-3       0.22 /_ -120.0         1
   -                  3      0.12702 /_   90.0         1     0.220        3-1       0.22 /_  120.0         1
   -                  4   5.2152E-009 /_  -20.3 4.1059E-008     0.220
BUS_33998182_024 .... 2      0.12702 /_ -150.0         1     0.220        2-3       0.22 /_ -120.0         1
   -                  3      0.12702 /_   90.0         1     0.220
   -                  4   4.8108E-009 /_  -17.3 3.7875E-008     0.220
BUS_33998182_011 .... 1      0.12702 /_  -30.0         1     0.220        1-2       0.22 /_    0.0         1
   -                  2      0.12702 /_ -150.0         1     0.220        2-3       0.22 /_ -120.0         1
   -                  3      0.12702 /_   90.0         1     0.220        3-1       0.22 /_  120.0         1
   -                  4   4.9992E-009 /_  -12.1 3.9359E-008     0.220
BUS_33998182_025 .... 2      0.12702 /_ -150.0         1     0.220
   -                  4   4.8257E-009 /_  -17.6 3.7992E-008     0.220
BUS_33998182_026 .... 1      0.12702 /_  -30.0         1     0.220        1-2       0.22 /_    0.0         1
   -                  2      0.12702 /_ -150.0         1     0.220
   -                  4   5.069E-009 /_  -21.4 3.9908E-008     0.220
BUS_33998182_027 .... 3      0.12702 /_   90.0         1     0.220
   -                  4   5.0594E-009 /_  -20.7 3.9833E-008     0.220
BUS_33998182_012 .... 1      0.12702 /_  -30.0         1     0.220        1-2       0.22 /_    0.0         1
   -                  2      0.12702 /_ -150.0         1     0.220        2-3       0.22 /_ -120.0         1
   -                  3      0.12702 /_   90.0         1     0.220        3-1       0.22 /_  120.0         1
   -                  4   4.9703E-009 /_  -24.6 3.9131E-008     0.220
BUS_33998182_028 .... 1      0.12702 /_  -30.0         1     0.220
   -                  4   5.0959E-009 /_  -21.1 4.012E-008     0.220
BUS_33998182_029 .... 3      0.12702 /_   90.0         1     0.220
   -                  4   5.065E-009 /_  -20.8 3.9876E-008     0.220
BUS_33998182_030 .... 1      0.12702 /_  -30.0         1     0.220
   -                  4   5.2277E-009 /_  -20.4 4.1158E-008     0.220
BUS_33998182_031 .... 3      0.12702 /_   90.0         1     0.220
   -                  4   4.9685E-009 /_  -11.6 3.9117E-008     0.220
BUS_33998182_032 .... 3      0.12702 /_   90.0         1     0.220
   -                  4   4.9711E-009 /_  -11.6 3.9137E-008     0.220
BUS_33998182_033 .... 1      0.12702 /_  -30.0         1     0.220
   -                  4   5.0171E-009 /_  -12.3 3.95E-008     0.220
BUS_33998182_034 .... 1      0.12702 /_  -30.0         1     0.220
   -                  3      0.12702 /_   90.0         1     0.220        3-1       0.22 /_  120.0         1
   -                  4   5.0107E-009 /_  -12.0 3.9449E-008     0.220
BUS_33998182_035 .... 1      0.12702 /_  -30.0         1     0.220
   -                  4   4.9976E-009 /_  -24.8 3.9346E-008     0.220
BUS_33998182_036 .... 2      0.12702 /_ -150.0         1     0.220
   -                  4   4.9408E-009 /_  -25.1 3.8898E-008     0.220
BUS_33998182_037 .... 3      0.12702 /_   90.0         1     0.220
   -                  4   4.9308E-009 /_  -24.2 3.882E-008     0.220
BUS_33998182_038 .... 2      0.12702 /_ -150.0         1     0.220
   -                  4   4.9447E-009 /_  -24.9 3.8929E-008     0.220
BUS_33998182_039 .... 1      0.12702 /_  -30.0         1     0.220
   -                  4   4.9957E-009 /_  -24.8 3.9331E-008     0.220
